[root]
type=Root
children=system
eventq_index=0
full_system=false
sim_quantum=0
time_sync_enable=false
time_sync_period=100000000000
time_sync_spin_threshold=100000000

[system]
type=System
children=clk_domain cpu cpu_clk_domain cpu_voltage_domain dvfs_handler l2 mem_ctrls membus redirect_paths0 redirect_paths1 redirect_paths2 tol2bus voltage_domain workload
byte_order=little
cache_line_size=64
eventq_index=0
exit_on_work_items=false
init_param=0
kvm_vm=Null
m5ops_base=4294901760
mem_mode=timing
mem_ranges=0:8589934592
memories=system.mem_ctrls.dram
mmap_using_noreserve=false
multi_thread=false
num_work_ids=16
readfile=
redirect_paths=system.redirect_paths0 system.redirect_paths1 system.redirect_paths2
shadow_rom_ranges=
shared_backstore=
symbolfile=
thermal_components=
thermal_model=Null
work_begin_ckpt_count=0
work_begin_cpu_id_exit=-1
work_begin_exit_count=0
work_cpus_ckpt_count=0
work_end_ckpt_count=0
work_end_exit_count=0
work_item_id=-1
workload=system.workload
system_port=system.membus.cpu_side_ports[0]

[system.clk_domain]
type=SrcClockDomain
clock=1000
domain_id=-1
eventq_index=0
init_perf_level=0
voltage_domain=system.voltage_domain

[system.cpu]
type=TimingSimpleCPU
children=dcache dtb_walker_cache icache interrupts isa itb_walker_cache mmu power_state tracer workload
branchPred=Null
checker=Null
clk_domain=system.cpu_clk_domain
cpu_id=0
do_checkpoint_insts=true
do_statistics_insts=true
eventq_index=0
function_trace=false
function_trace_start=0
interrupts=system.cpu.interrupts
isa=system.cpu.isa
max_insts_all_threads=0
max_insts_any_thread=0
mmu=system.cpu.mmu
numThreads=1
power_gating_on_idle=false
power_model=
power_state=system.cpu.power_state
progress_interval=0
pwr_gating_latency=300
simpoint_start_insts=
socket_id=0
switched_out=false
syscallRetryLatency=10000
system=system
tracer=system.cpu.tracer
workload=system.cpu.workload
dcache_port=system.cpu.dcache.cpu_side
icache_port=system.cpu.icache.cpu_side

[system.cpu.dcache]
type=Cache
children=power_state replacement_policy tags
addr_ranges=0:18446744073709551615
assoc=8
clk_domain=system.cpu_clk_domain
clusivity=mostly_incl
compressor=Null
data_latency=4
demand_mshr_reserve=1
eventq_index=0
fill_latency=4
is_read_only=false
max_miss_count=0
move_contractions=true
mshrs=4
power_model=
power_state=system.cpu.dcache.power_state
prefetch_on_access=false
prefetch_on_pf_hit=false
prefetcher=Null
replace_expansions=true
replacement_policy=system.cpu.dcache.replacement_policy
response_latency=4
sequential_access=false
size=32768
system=system
tag_latency=4
tags=system.cpu.dcache.tags
tgts_per_mshr=20
warmup_percentage=0
write_allocator=Null
write_buffers=8
writeback_clean=false
cpu_side=system.cpu.dcache_port
mem_side=system.tol2bus.cpu_side_ports[1]

[system.cpu.dcache.power_state]
type=PowerState
clk_gate_bins=20
clk_gate_max=1000000000000
clk_gate_min=1000
default_state=UNDEFINED
eventq_index=0
leaders=
possible_states=

[system.cpu.dcache.replacement_policy]
type=LRURP
eventq_index=0

[system.cpu.dcache.tags]
type=BaseSetAssoc
children=indexing_policy power_state
assoc=8
block_size=64
clk_domain=system.cpu_clk_domain
entry_size=64
eventq_index=0
indexing_policy=system.cpu.dcache.tags.indexing_policy
power_model=
power_state=system.cpu.dcache.tags.power_state
replacement_policy=system.cpu.dcache.replacement_policy
sequential_access=false
size=32768
system=system
tag_latency=4
warmup_percentage=0

[system.cpu.dcache.tags.indexing_policy]
type=SetAssociative
assoc=8
entry_size=64
eventq_index=0
size=32768

[system.cpu.dcache.tags.power_state]
type=PowerState
clk_gate_bins=20
clk_gate_max=1000000000000
clk_gate_min=1000
default_state=UNDEFINED
eventq_index=0
leaders=
possible_states=

[system.cpu.dtb_walker_cache]
type=Cache
children=power_state replacement_policy tags
addr_ranges=0:18446744073709551615
assoc=2
clk_domain=system.cpu_clk_domain
clusivity=mostly_incl
compressor=Null
data_latency=2
demand_mshr_reserve=1
eventq_index=0
fill_latency=2
is_read_only=false
max_miss_count=0
move_contractions=true
mshrs=10
power_model=
power_state=system.cpu.dtb_walker_cache.power_state
prefetch_on_access=false
prefetch_on_pf_hit=false
prefetcher=Null
replace_expansions=true
replacement_policy=system.cpu.dtb_walker_cache.replacement_policy
response_latency=2
sequential_access=false
size=1024
system=system
tag_latency=2
tags=system.cpu.dtb_walker_cache.tags
tgts_per_mshr=12
warmup_percentage=0
write_allocator=Null
write_buffers=8
writeback_clean=false
cpu_side=system.cpu.mmu.dtb.walker.port
mem_side=system.tol2bus.cpu_side_ports[3]

[system.cpu.dtb_walker_cache.power_state]
type=PowerState
clk_gate_bins=20
clk_gate_max=1000000000000
clk_gate_min=1000
default_state=UNDEFINED
eventq_index=0
leaders=
possible_states=

[system.cpu.dtb_walker_cache.replacement_policy]
type=LRURP
eventq_index=0

[system.cpu.dtb_walker_cache.tags]
type=BaseSetAssoc
children=indexing_policy power_state
assoc=2
block_size=64
clk_domain=system.cpu_clk_domain
entry_size=64
eventq_index=0
indexing_policy=system.cpu.dtb_walker_cache.tags.indexing_policy
power_model=
power_state=system.cpu.dtb_walker_cache.tags.power_state
replacement_policy=system.cpu.dtb_walker_cache.replacement_policy
sequential_access=false
size=1024
system=system
tag_latency=2
warmup_percentage=0

[system.cpu.dtb_walker_cache.tags.indexing_policy]
type=SetAssociative
assoc=2
entry_size=64
eventq_index=0
size=1024

[system.cpu.dtb_walker_cache.tags.power_state]
type=PowerState
clk_gate_bins=20
clk_gate_max=1000000000000
clk_gate_min=1000
default_state=UNDEFINED
eventq_index=0
leaders=
possible_states=

[system.cpu.icache]
type=Cache
children=power_state replacement_policy tags
addr_ranges=0:18446744073709551615
assoc=8
clk_domain=system.cpu_clk_domain
clusivity=mostly_incl
compressor=Null
data_latency=4
demand_mshr_reserve=1
eventq_index=0
fill_latency=4
is_read_only=true
max_miss_count=0
move_contractions=true
mshrs=4
power_model=
power_state=system.cpu.icache.power_state
prefetch_on_access=false
prefetch_on_pf_hit=false
prefetcher=Null
replace_expansions=true
replacement_policy=system.cpu.icache.replacement_policy
response_latency=4
sequential_access=false
size=32768
system=system
tag_latency=4
tags=system.cpu.icache.tags
tgts_per_mshr=20
warmup_percentage=0
write_allocator=Null
write_buffers=8
writeback_clean=true
cpu_side=system.cpu.icache_port
mem_side=system.tol2bus.cpu_side_ports[0]

[system.cpu.icache.power_state]
type=PowerState
clk_gate_bins=20
clk_gate_max=1000000000000
clk_gate_min=1000
default_state=UNDEFINED
eventq_index=0
leaders=
possible_states=

[system.cpu.icache.replacement_policy]
type=LRURP
eventq_index=0

[system.cpu.icache.tags]
type=BaseSetAssoc
children=indexing_policy power_state
assoc=8
block_size=64
clk_domain=system.cpu_clk_domain
entry_size=64
eventq_index=0
indexing_policy=system.cpu.icache.tags.indexing_policy
power_model=
power_state=system.cpu.icache.tags.power_state
replacement_policy=system.cpu.icache.replacement_policy
sequential_access=false
size=32768
system=system
tag_latency=4
warmup_percentage=0

[system.cpu.icache.tags.indexing_policy]
type=SetAssociative
assoc=8
entry_size=64
eventq_index=0
size=32768

[system.cpu.icache.tags.power_state]
type=PowerState
clk_gate_bins=20
clk_gate_max=1000000000000
clk_gate_min=1000
default_state=UNDEFINED
eventq_index=0
leaders=
possible_states=

[system.cpu.interrupts]
type=X86LocalApic
children=clk_domain
clk_domain=system.cpu.interrupts.clk_domain
eventq_index=0
int_latency=1000
pio_latency=100000
system=system
int_requestor=system.membus.cpu_side_ports[2]
int_responder=system.membus.mem_side_ports[1]
pio=system.membus.mem_side_ports[0]

[system.cpu.interrupts.clk_domain]
type=DerivedClockDomain
clk_divider=16
clk_domain=system.cpu_clk_domain
eventq_index=0

[system.cpu.isa]
type=X86ISA
eventq_index=0
vendor_string=M5 Simulator

[system.cpu.itb_walker_cache]
type=Cache
children=power_state replacement_policy tags
addr_ranges=0:18446744073709551615
assoc=2
clk_domain=system.cpu_clk_domain
clusivity=mostly_incl
compressor=Null
data_latency=2
demand_mshr_reserve=1
eventq_index=0
fill_latency=2
is_read_only=false
max_miss_count=0
move_contractions=true
mshrs=10
power_model=
power_state=system.cpu.itb_walker_cache.power_state
prefetch_on_access=false
prefetch_on_pf_hit=false
prefetcher=Null
replace_expansions=true
replacement_policy=system.cpu.itb_walker_cache.replacement_policy
response_latency=2
sequential_access=false
size=1024
system=system
tag_latency=2
tags=system.cpu.itb_walker_cache.tags
tgts_per_mshr=12
warmup_percentage=0
write_allocator=Null
write_buffers=8
writeback_clean=false
cpu_side=system.cpu.mmu.itb.walker.port
mem_side=system.tol2bus.cpu_side_ports[2]

[system.cpu.itb_walker_cache.power_state]
type=PowerState
clk_gate_bins=20
clk_gate_max=1000000000000
clk_gate_min=1000
default_state=UNDEFINED
eventq_index=0
leaders=
possible_states=

[system.cpu.itb_walker_cache.replacement_policy]
type=LRURP
eventq_index=0

[system.cpu.itb_walker_cache.tags]
type=BaseSetAssoc
children=indexing_policy power_state
assoc=2
block_size=64
clk_domain=system.cpu_clk_domain
entry_size=64
eventq_index=0
indexing_policy=system.cpu.itb_walker_cache.tags.indexing_policy
power_model=
power_state=system.cpu.itb_walker_cache.tags.power_state
replacement_policy=system.cpu.itb_walker_cache.replacement_policy
sequential_access=false
size=1024
system=system
tag_latency=2
warmup_percentage=0

[system.cpu.itb_walker_cache.tags.indexing_policy]
type=SetAssociative
assoc=2
entry_size=64
eventq_index=0
size=1024

[system.cpu.itb_walker_cache.tags.power_state]
type=PowerState
clk_gate_bins=20
clk_gate_max=1000000000000
clk_gate_min=1000
default_state=UNDEFINED
eventq_index=0
leaders=
possible_states=

[system.cpu.mmu]
type=X86MMU
children=dtb itb
dtb=system.cpu.mmu.dtb
eventq_index=0
itb=system.cpu.mmu.itb

[system.cpu.mmu.dtb]
type=X86TLB
children=walker
eventq_index=0
size=64
system=system
walker=system.cpu.mmu.dtb.walker

[system.cpu.mmu.dtb.walker]
type=X86PagetableWalker
children=power_state
clk_domain=system.cpu_clk_domain
eventq_index=0
num_squash_per_cycle=4
power_model=
power_state=system.cpu.mmu.dtb.walker.power_state
system=system
port=system.cpu.dtb_walker_cache.cpu_side

[system.cpu.mmu.dtb.walker.power_state]
type=PowerState
clk_gate_bins=20
clk_gate_max=1000000000000
clk_gate_min=1000
default_state=UNDEFINED
eventq_index=0
leaders=
possible_states=

[system.cpu.mmu.itb]
type=X86TLB
children=walker
eventq_index=0
size=64
system=system
walker=system.cpu.mmu.itb.walker

[system.cpu.mmu.itb.walker]
type=X86PagetableWalker
children=power_state
clk_domain=system.cpu_clk_domain
eventq_index=0
num_squash_per_cycle=4
power_model=
power_state=system.cpu.mmu.itb.walker.power_state
system=system
port=system.cpu.itb_walker_cache.cpu_side

[system.cpu.mmu.itb.walker.power_state]
type=PowerState
clk_gate_bins=20
clk_gate_max=1000000000000
clk_gate_min=1000
default_state=UNDEFINED
eventq_index=0
leaders=
possible_states=

[system.cpu.power_state]
type=PowerState
clk_gate_bins=20
clk_gate_max=1000000000000
clk_gate_min=1000
default_state=UNDEFINED
eventq_index=0
leaders=
possible_states=ON CLK_GATED OFF

[system.cpu.tracer]
type=ExeTracer
eventq_index=0

[system.cpu.workload]
type=Process
cmd=/disk1/ryotta205/git/Lab-GEM5_NVMain/test_progs/mem_writes/mem_writes.o 10000 64
cwd=/disk1/ryotta205/git/Lab-GEM5_NVMain/test_progs/mem_writes
drivers=
egid=100
env=
errout=cerr
euid=100
eventq_index=0
executable=/disk1/ryotta205/git/Lab-GEM5_NVMain/test_progs/mem_writes/mem_writes.o
gid=100
input=cin
kvmInSE=false
maxStackSize=67108864
output=cout
pgid=100
pid=100
ppid=0
release=5.1.0
simpoint=0
system=system
uid=100
useArchPT=false

[system.cpu_clk_domain]
type=SrcClockDomain
clock=333
domain_id=-1
eventq_index=0
init_perf_level=0
voltage_domain=system.cpu_voltage_domain

[system.cpu_voltage_domain]
type=VoltageDomain
eventq_index=0
voltage=1.0

[system.dvfs_handler]
type=DVFSHandler
domains=
enable=false
eventq_index=0
sys_clk_domain=system.clk_domain
transition_latency=100000000

[system.l2]
type=Cache
children=power_state replacement_policy tags
addr_ranges=0:18446744073709551615
assoc=16
clk_domain=system.cpu_clk_domain
clusivity=mostly_incl
compressor=Null
data_latency=20
demand_mshr_reserve=1
eventq_index=0
fill_latency=20
is_read_only=false
max_miss_count=0
move_contractions=true
mshrs=20
power_model=
power_state=system.l2.power_state
prefetch_on_access=false
prefetch_on_pf_hit=false
prefetcher=Null
replace_expansions=true
replacement_policy=system.l2.replacement_policy
response_latency=20
sequential_access=false
size=4194304
system=system
tag_latency=20
tags=system.l2.tags
tgts_per_mshr=12
warmup_percentage=0
write_allocator=Null
write_buffers=8
writeback_clean=false
cpu_side=system.tol2bus.mem_side_ports[0]
mem_side=system.membus.cpu_side_ports[1]

[system.l2.power_state]
type=PowerState
clk_gate_bins=20
clk_gate_max=1000000000000
clk_gate_min=1000
default_state=UNDEFINED
eventq_index=0
leaders=
possible_states=

[system.l2.replacement_policy]
type=LRURP
eventq_index=0

[system.l2.tags]
type=BaseSetAssoc
children=indexing_policy power_state
assoc=16
block_size=64
clk_domain=system.cpu_clk_domain
entry_size=64
eventq_index=0
indexing_policy=system.l2.tags.indexing_policy
power_model=
power_state=system.l2.tags.power_state
replacement_policy=system.l2.replacement_policy
sequential_access=false
size=4194304
system=system
tag_latency=20
warmup_percentage=0

[system.l2.tags.indexing_policy]
type=SetAssociative
assoc=16
entry_size=64
eventq_index=0
size=4194304

[system.l2.tags.power_state]
type=PowerState
clk_gate_bins=20
clk_gate_max=1000000000000
clk_gate_min=1000
default_state=UNDEFINED
eventq_index=0
leaders=
possible_states=

[system.mem_ctrls]
type=MemCtrl
children=dram power_state
clk_domain=system.clk_domain
command_window=10000
dram=system.mem_ctrls.dram
eventq_index=0
mem_sched_policy=frfcfs
min_writes_per_switch=16
nvm=Null
power_model=
power_state=system.mem_ctrls.power_state
qos_policy=Null
qos_priorities=1
qos_priority_escalation=false
qos_q_policy=fifo
qos_requestors=               
qos_syncro_scheduler=false
qos_turnaround_policy=Null
static_backend_latency=10000
static_frontend_latency=10000
system=system
write_high_thresh_perc=85
write_low_thresh_perc=50
port=system.membus.mem_side_ports[2]

[system.mem_ctrls.dram]
type=DRAMInterface
children=power_state
IDD0=0.08
IDD02=0.004
IDD2N=0.034
IDD2N2=0.0
IDD2P0=0.0
IDD2P02=0.0
IDD2P1=0.025
IDD2P12=0.0
IDD3N=0.047
IDD3N2=0.003
IDD3P0=0.0
IDD3P02=0.0
IDD3P1=0.041
IDD3P12=0.0
IDD4R=0.243
IDD4R2=0.0
IDD4W=0.228
IDD4W2=0.0
IDD5=0.28
IDD52=0.0
IDD6=0.03
IDD62=0.0
VDD=1.2
VDD2=2.5
activation_limit=4
addr_mapping=RoRaBaCoCh
bank_groups_per_rank=2
banks_per_rank=8
beats_per_clock=2
burst_length=8
clk_domain=system.clk_domain
conf_table_reported=true
data_clock_sync=false
device_bus_width=16
device_rowbuffer_size=2048
device_size=1073741824
devices_per_rank=4
dll=true
enable_dram_powerdown=false
eventq_index=0
image_file=
in_addr_map=true
kvm_map=true
max_accesses_per_row=16
null=false
page_policy=open_adaptive
power_model=
power_state=system.mem_ctrls.dram.power_state
range=0:8589934592
ranks_per_channel=2
read_buffer_size=64
tAAD=833
tBURST=3332
tBURST_MAX=3332
tBURST_MIN=3332
tCCD_L=5000
tCCD_L_WR=5000
tCK=833
tCL=14160
tCS=1666
tPPD=0
tRAS=32000
tRCD=14160
tREFI=7800000
tRFC=350000
tRP=14160
tRRD=5300
tRRD_L=6400
tRTP=7500
tRTW=1666
tWR=15000
tWTR=5000
tWTR_L=5000
tXAW=30000
tXP=6000
tXPDLL=0
tXS=340000
tXSDLL=0
two_cycle_activate=false
write_buffer_size=128

[system.mem_ctrls.dram.power_state]
type=PowerState
clk_gate_bins=20
clk_gate_max=1000000000000
clk_gate_min=1000
default_state=UNDEFINED
eventq_index=0
leaders=
possible_states=

[system.mem_ctrls.power_state]
type=PowerState
clk_gate_bins=20
clk_gate_max=1000000000000
clk_gate_min=1000
default_state=UNDEFINED
eventq_index=0
leaders=
possible_states=

[system.membus]
type=CoherentXBar
children=power_state snoop_filter
clk_domain=system.clk_domain
eventq_index=0
forward_latency=4
frontend_latency=3
header_latency=1
max_outstanding_snoops=512
max_routing_table_size=512
point_of_coherency=true
point_of_unification=true
power_model=
power_state=system.membus.power_state
response_latency=2
snoop_filter=system.membus.snoop_filter
snoop_response_latency=4
system=system
use_default_range=false
width=16
cpu_side_ports=system.system_port system.l2.mem_side system.cpu.interrupts.int_requestor
mem_side_ports=system.cpu.interrupts.pio system.cpu.interrupts.int_responder system.mem_ctrls.port

[system.membus.power_state]
type=PowerState
clk_gate_bins=20
clk_gate_max=1000000000000
clk_gate_min=1000
default_state=UNDEFINED
eventq_index=0
leaders=
possible_states=

[system.membus.snoop_filter]
type=SnoopFilter
eventq_index=0
lookup_latency=1
max_capacity=8388608
system=system

[system.redirect_paths0]
type=RedirectPath
app_path=/proc
eventq_index=0
host_paths=m5out/fs/proc

[system.redirect_paths1]
type=RedirectPath
app_path=/sys
eventq_index=0
host_paths=m5out/fs/sys

[system.redirect_paths2]
type=RedirectPath
app_path=/tmp
eventq_index=0
host_paths=m5out/fs/tmp

[system.tol2bus]
type=CoherentXBar
children=power_state snoop_filter
clk_domain=system.cpu_clk_domain
eventq_index=0
forward_latency=0
frontend_latency=1
header_latency=1
max_outstanding_snoops=512
max_routing_table_size=512
point_of_coherency=false
point_of_unification=true
power_model=
power_state=system.tol2bus.power_state
response_latency=1
snoop_filter=system.tol2bus.snoop_filter
snoop_response_latency=1
system=system
use_default_range=false
width=32
cpu_side_ports=system.cpu.icache.mem_side system.cpu.dcache.mem_side system.cpu.itb_walker_cache.mem_side system.cpu.dtb_walker_cache.mem_side
mem_side_ports=system.l2.cpu_side

[system.tol2bus.power_state]
type=PowerState
clk_gate_bins=20
clk_gate_max=1000000000000
clk_gate_min=1000
default_state=UNDEFINED
eventq_index=0
leaders=
possible_states=

[system.tol2bus.snoop_filter]
type=SnoopFilter
eventq_index=0
lookup_latency=0
max_capacity=8388608
system=system

[system.voltage_domain]
type=VoltageDomain
eventq_index=0
voltage=1.0

[system.workload]
type=X86EmuLinux
eventq_index=0
wait_for_remote_gdb=false

